# KPP parameters
 &KPP_PARM01
 KPPmixingMaps   = .FALSE.,
 KPPwriteState   = .FALSE.,
 kpp_dumpFreq    = 2592000.,
 kpp_tavefreq    = 0.,
 Ricr            = 0.3273,
 Riinfty         = 0.8358,
 &
