# Packages
 &PACKAGES
 useShelfIce=.TRUE.,
# useDiagnostics=.TRUE.,
  useCAL   = .TRUE., 
#  useOBCS        = .TRUE.,
 
 &
